
---------- Begin Simulation Statistics ----------
sim_seconds                                  1.113576                       # Number of seconds simulated
sim_ticks                                1113576417000                       # Number of ticks simulated
final_tick                               1113576417000                       # Number of ticks from beginning of simulation (restored from checkpoints and never reset)
sim_freq                                 1000000000000                       # Frequency of simulated ticks
host_inst_rate                                 609134                       # Simulator instruction rate (inst/s)
host_op_rate                                   987791                       # Simulator op (including micro ops) rate (op/s)
host_tick_rate                             1345631482                       # Simulator tick rate (ticks/s)
host_mem_usage                                 664048                       # Number of bytes of host memory used
host_seconds                                   827.55                       # Real time elapsed on the host
sim_insts                                   504088774                       # Number of instructions simulated
sim_ops                                     817446129                       # Number of ops (including micro ops) simulated
system.voltage_domain.voltage                       1                       # Voltage in Volts
system.clk_domain.clock                          1000                       # Clock period in ticks
system.mem_ctrls.pwrStateResidencyTicks::UNDEFINED 1113576417000                       # Cumulative time (in ticks) in various power states
system.mem_ctrls.bytes_read::cpu.inst           22720                       # Number of bytes read from this memory
system.mem_ctrls.bytes_read::cpu.data        18097792                       # Number of bytes read from this memory
system.mem_ctrls.bytes_read::total           18120512                       # Number of bytes read from this memory
system.mem_ctrls.bytes_inst_read::cpu.inst        22720                       # Number of instructions bytes read from this memory
system.mem_ctrls.bytes_inst_read::total         22720                       # Number of instructions bytes read from this memory
system.mem_ctrls.bytes_written::writebacks     16643712                       # Number of bytes written to this memory
system.mem_ctrls.bytes_written::total        16643712                       # Number of bytes written to this memory
system.mem_ctrls.num_reads::cpu.inst              355                       # Number of read requests responded to by this memory
system.mem_ctrls.num_reads::cpu.data           282778                       # Number of read requests responded to by this memory
system.mem_ctrls.num_reads::total              283133                       # Number of read requests responded to by this memory
system.mem_ctrls.num_writes::writebacks        260058                       # Number of write requests responded to by this memory
system.mem_ctrls.num_writes::total             260058                       # Number of write requests responded to by this memory
system.mem_ctrls.bw_read::cpu.inst              20403                       # Total read bandwidth from this memory (bytes/s)
system.mem_ctrls.bw_read::cpu.data           16251953                       # Total read bandwidth from this memory (bytes/s)
system.mem_ctrls.bw_read::total              16272356                       # Total read bandwidth from this memory (bytes/s)
system.mem_ctrls.bw_inst_read::cpu.inst         20403                       # Instruction read bandwidth from this memory (bytes/s)
system.mem_ctrls.bw_inst_read::total            20403                       # Instruction read bandwidth from this memory (bytes/s)
system.mem_ctrls.bw_write::writebacks        14946179                       # Write bandwidth from this memory (bytes/s)
system.mem_ctrls.bw_write::total             14946179                       # Write bandwidth from this memory (bytes/s)
system.mem_ctrls.bw_total::writebacks        14946179                       # Total bandwidth to/from this memory (bytes/s)
system.mem_ctrls.bw_total::cpu.inst             20403                       # Total bandwidth to/from this memory (bytes/s)
system.mem_ctrls.bw_total::cpu.data          16251953                       # Total bandwidth to/from this memory (bytes/s)
system.mem_ctrls.bw_total::total             31218535                       # Total bandwidth to/from this memory (bytes/s)
system.pwrStateResidencyTicks::UNDEFINED 1113576417000                       # Cumulative time (in ticks) in various power states
system.cpu_voltage_domain.voltage                   1                       # Voltage in Volts
system.cpu_clk_domain.clock                       500                       # Clock period in ticks
system.cpu.dtb.walker.pwrStateResidencyTicks::UNDEFINED 1113576417000                       # Cumulative time (in ticks) in various power states
system.cpu.dtb.rdAccesses                   238245991                       # TLB accesses on read requests
system.cpu.dtb.wrAccesses                    64374667                       # TLB accesses on write requests
system.cpu.dtb.rdMisses                          5921                       # TLB misses on read requests
system.cpu.dtb.wrMisses                           999                       # TLB misses on write requests
system.cpu.apic_clk_domain.clock                 8000                       # Clock period in ticks
system.cpu.interrupts.pwrStateResidencyTicks::UNDEFINED 1113576417000                       # Cumulative time (in ticks) in various power states
system.cpu.itb.walker.pwrStateResidencyTicks::UNDEFINED 1113576417000                       # Cumulative time (in ticks) in various power states
system.cpu.itb.rdAccesses                           0                       # TLB accesses on read requests
system.cpu.itb.wrAccesses                   677335213                       # TLB accesses on write requests
system.cpu.itb.rdMisses                             0                       # TLB misses on read requests
system.cpu.itb.wrMisses                            36                       # TLB misses on write requests
system.cpu.workload.numSyscalls                     9                       # Number of system calls
system.cpu.pwrStateResidencyTicks::ON    1113576417000                       # Cumulative time (in ticks) in various power states
system.cpu.numCycles                       2227152834                       # number of cpu cycles simulated
system.cpu.numWorkItemsStarted                      0                       # number of work items this cpu started
system.cpu.numWorkItemsCompleted                    0                       # number of work items this cpu completed
system.cpu.committedInsts                   504088774                       # Number of instructions committed
system.cpu.committedOps                     817446129                       # Number of ops (including micro ops) committed
system.cpu.num_int_alu_accesses             812630010                       # Number of integer alu accesses
system.cpu.num_fp_alu_accesses                   1975                       # Number of float alu accesses
system.cpu.num_vec_alu_accesses                     0                       # Number of vector alu accesses
system.cpu.num_func_calls                     9452832                       # number of times a function call or return occured
system.cpu.num_conditional_control_insts     46565890                       # number of instructions that are conditional controls
system.cpu.num_int_insts                    812630010                       # number of integer instructions
system.cpu.num_fp_insts                          1975                       # number of float instructions
system.cpu.num_vec_insts                            0                       # number of vector instructions
system.cpu.num_int_register_reads          1822855649                       # number of times the integer registers were read
system.cpu.num_int_register_writes          705741308                       # number of times the integer registers were written
system.cpu.num_fp_register_reads                 3787                       # number of times the floating registers were read
system.cpu.num_fp_register_writes                1492                       # number of times the floating registers were written
system.cpu.num_vec_register_reads                   0                       # number of times the vector registers were read
system.cpu.num_vec_register_writes                  0                       # number of times the vector registers were written
system.cpu.num_cc_register_reads            297557775                       # number of times the CC registers were read
system.cpu.num_cc_register_writes           279904588                       # number of times the CC registers were written
system.cpu.num_mem_refs                     302620652                       # number of memory refs
system.cpu.num_load_insts                   238245986                       # Number of load instructions
system.cpu.num_store_insts                   64374666                       # Number of store instructions
system.cpu.num_idle_cycles                          0                       # Number of idle cycles
system.cpu.num_busy_cycles                 2227152834                       # Number of busy cycles
system.cpu.not_idle_fraction                        1                       # Percentage of non-idle cycles
system.cpu.idle_fraction                            0                       # Percentage of idle cycles
system.cpu.Branches                          60772146                       # Number of branches fetched
system.cpu.op_class::No_OpClass               1362109      0.17%      0.17% # Class of executed instruction
system.cpu.op_class::IntAlu                 505014358     61.78%     61.95% # Class of executed instruction
system.cpu.op_class::IntMult                        4      0.00%     61.95% # Class of executed instruction
system.cpu.op_class::IntDiv                   8448046      1.03%     62.98% # Class of executed instruction
system.cpu.op_class::FloatAdd                      10      0.00%     62.98% # Class of executed instruction
system.cpu.op_class::FloatCmp                       0      0.00%     62.98% # Class of executed instruction
system.cpu.op_class::FloatCvt                       0      0.00%     62.98% # Class of executed instruction
system.cpu.op_class::FloatMult                      0      0.00%     62.98% # Class of executed instruction
system.cpu.op_class::FloatMultAcc                   0      0.00%     62.98% # Class of executed instruction
system.cpu.op_class::FloatDiv                       0      0.00%     62.98% # Class of executed instruction
system.cpu.op_class::FloatMisc                      0      0.00%     62.98% # Class of executed instruction
system.cpu.op_class::FloatSqrt                      0      0.00%     62.98% # Class of executed instruction
system.cpu.op_class::SimdAdd                      374      0.00%     62.98% # Class of executed instruction
system.cpu.op_class::SimdAddAcc                     0      0.00%     62.98% # Class of executed instruction
system.cpu.op_class::SimdAlu                       68      0.00%     62.98% # Class of executed instruction
system.cpu.op_class::SimdCmp                        0      0.00%     62.98% # Class of executed instruction
system.cpu.op_class::SimdCvt                      108      0.00%     62.98% # Class of executed instruction
system.cpu.op_class::SimdMisc                     214      0.00%     62.98% # Class of executed instruction
system.cpu.op_class::SimdMult                       0      0.00%     62.98% # Class of executed instruction
system.cpu.op_class::SimdMultAcc                    0      0.00%     62.98% # Class of executed instruction
system.cpu.op_class::SimdShift                    186      0.00%     62.98% # Class of executed instruction
system.cpu.op_class::SimdShiftAcc                   0      0.00%     62.98% # Class of executed instruction
system.cpu.op_class::SimdSqrt                       0      0.00%     62.98% # Class of executed instruction
system.cpu.op_class::SimdFloatAdd                   0      0.00%     62.98% # Class of executed instruction
system.cpu.op_class::SimdFloatAlu                   0      0.00%     62.98% # Class of executed instruction
system.cpu.op_class::SimdFloatCmp                   0      0.00%     62.98% # Class of executed instruction
system.cpu.op_class::SimdFloatCvt                   0      0.00%     62.98% # Class of executed instruction
system.cpu.op_class::SimdFloatDiv                   0      0.00%     62.98% # Class of executed instruction
system.cpu.op_class::SimdFloatMisc                  0      0.00%     62.98% # Class of executed instruction
system.cpu.op_class::SimdFloatMult                  0      0.00%     62.98% # Class of executed instruction
system.cpu.op_class::SimdFloatMultAcc               0      0.00%     62.98% # Class of executed instruction
system.cpu.op_class::SimdFloatSqrt                  0      0.00%     62.98% # Class of executed instruction
system.cpu.op_class::MemRead                238245918     29.15%     92.12% # Class of executed instruction
system.cpu.op_class::MemWrite                64374231      7.88%    100.00% # Class of executed instruction
system.cpu.op_class::FloatMemRead                  68      0.00%    100.00% # Class of executed instruction
system.cpu.op_class::FloatMemWrite                435      0.00%    100.00% # Class of executed instruction
system.cpu.op_class::IprAccess                      0      0.00%    100.00% # Class of executed instruction
system.cpu.op_class::InstPrefetch                   0      0.00%    100.00% # Class of executed instruction
system.cpu.op_class::total                  817446129                       # Class of executed instruction
system.cpu.dcache.tags.pwrStateResidencyTicks::UNDEFINED 1113576417000                       # Cumulative time (in ticks) in various power states
system.cpu.dcache.tags.tagsinuse           511.824235                       # Cycle average of tags in use
system.cpu.dcache.tags.total_refs           302620658                       # Total number of references to valid blocks.
system.cpu.dcache.tags.sampled_refs            682449                       # Sample count of references to valid blocks.
system.cpu.dcache.tags.avg_refs            443.433367                       # Average number of references to valid blocks.
system.cpu.dcache.tags.warmup_cycle            765000                       # Cycle when the warmup percentage was hit.
system.cpu.dcache.tags.occ_blocks::cpu.data   511.824235                       # Average occupied blocks per requestor
system.cpu.dcache.tags.occ_percent::cpu.data     0.999657                       # Average percentage of cache occupancy
system.cpu.dcache.tags.occ_percent::total     0.999657                       # Average percentage of cache occupancy
system.cpu.dcache.tags.occ_task_id_blocks::1024          512                       # Occupied blocks per task id
system.cpu.dcache.tags.age_task_id_blocks_1024::0           11                       # Occupied blocks per task id
system.cpu.dcache.tags.age_task_id_blocks_1024::1           19                       # Occupied blocks per task id
system.cpu.dcache.tags.age_task_id_blocks_1024::2           54                       # Occupied blocks per task id
system.cpu.dcache.tags.age_task_id_blocks_1024::3          421                       # Occupied blocks per task id
system.cpu.dcache.tags.age_task_id_blocks_1024::4            7                       # Occupied blocks per task id
system.cpu.dcache.tags.occ_task_id_percent::1024            1                       # Percentage of cache occupancy per task id
system.cpu.dcache.tags.tag_accesses         605923765                       # Number of tag accesses
system.cpu.dcache.tags.data_accesses        605923765                       # Number of data accesses
system.cpu.dcache.pwrStateResidencyTicks::UNDEFINED 1113576417000                       # Cumulative time (in ticks) in various power states
system.cpu.dcache.ReadReq_hits::cpu.data    237630018                       # number of ReadReq hits
system.cpu.dcache.ReadReq_hits::total       237630018                       # number of ReadReq hits
system.cpu.dcache.WriteReq_hits::cpu.data     64091413                       # number of WriteReq hits
system.cpu.dcache.WriteReq_hits::total       64091413                       # number of WriteReq hits
system.cpu.dcache.demand_hits::cpu.data     301721431                       # number of demand (read+write) hits
system.cpu.dcache.demand_hits::total        301721431                       # number of demand (read+write) hits
system.cpu.dcache.overall_hits::cpu.data    301721431                       # number of overall hits
system.cpu.dcache.overall_hits::total       301721431                       # number of overall hits
system.cpu.dcache.ReadReq_misses::cpu.data       615973                       # number of ReadReq misses
system.cpu.dcache.ReadReq_misses::total        615973                       # number of ReadReq misses
system.cpu.dcache.WriteReq_misses::cpu.data       283254                       # number of WriteReq misses
system.cpu.dcache.WriteReq_misses::total       283254                       # number of WriteReq misses
system.cpu.dcache.demand_misses::cpu.data       899227                       # number of demand (read+write) misses
system.cpu.dcache.demand_misses::total         899227                       # number of demand (read+write) misses
system.cpu.dcache.overall_misses::cpu.data       899227                       # number of overall misses
system.cpu.dcache.overall_misses::total        899227                       # number of overall misses
system.cpu.dcache.ReadReq_miss_latency::cpu.data 111338353000                       # number of ReadReq miss cycles
system.cpu.dcache.ReadReq_miss_latency::total 111338353000                       # number of ReadReq miss cycles
system.cpu.dcache.WriteReq_miss_latency::cpu.data  23114895000                       # number of WriteReq miss cycles
system.cpu.dcache.WriteReq_miss_latency::total  23114895000                       # number of WriteReq miss cycles
system.cpu.dcache.demand_miss_latency::cpu.data 134453248000                       # number of demand (read+write) miss cycles
system.cpu.dcache.demand_miss_latency::total 134453248000                       # number of demand (read+write) miss cycles
system.cpu.dcache.overall_miss_latency::cpu.data 134453248000                       # number of overall miss cycles
system.cpu.dcache.overall_miss_latency::total 134453248000                       # number of overall miss cycles
system.cpu.dcache.ReadReq_accesses::cpu.data    238245991                       # number of ReadReq accesses(hits+misses)
system.cpu.dcache.ReadReq_accesses::total    238245991                       # number of ReadReq accesses(hits+misses)
system.cpu.dcache.WriteReq_accesses::cpu.data     64374667                       # number of WriteReq accesses(hits+misses)
system.cpu.dcache.WriteReq_accesses::total     64374667                       # number of WriteReq accesses(hits+misses)
system.cpu.dcache.demand_accesses::cpu.data    302620658                       # number of demand (read+write) accesses
system.cpu.dcache.demand_accesses::total    302620658                       # number of demand (read+write) accesses
system.cpu.dcache.overall_accesses::cpu.data    302620658                       # number of overall (read+write) accesses
system.cpu.dcache.overall_accesses::total    302620658                       # number of overall (read+write) accesses
system.cpu.dcache.ReadReq_miss_rate::cpu.data     0.002585                       # miss rate for ReadReq accesses
system.cpu.dcache.ReadReq_miss_rate::total     0.002585                       # miss rate for ReadReq accesses
system.cpu.dcache.WriteReq_miss_rate::cpu.data     0.004400                       # miss rate for WriteReq accesses
system.cpu.dcache.WriteReq_miss_rate::total     0.004400                       # miss rate for WriteReq accesses
system.cpu.dcache.demand_miss_rate::cpu.data     0.002971                       # miss rate for demand accesses
system.cpu.dcache.demand_miss_rate::total     0.002971                       # miss rate for demand accesses
system.cpu.dcache.overall_miss_rate::cpu.data     0.002971                       # miss rate for overall accesses
system.cpu.dcache.overall_miss_rate::total     0.002971                       # miss rate for overall accesses
system.cpu.dcache.ReadReq_avg_miss_latency::cpu.data 180752.002117                       # average ReadReq miss latency
system.cpu.dcache.ReadReq_avg_miss_latency::total 180752.002117                       # average ReadReq miss latency
system.cpu.dcache.WriteReq_avg_miss_latency::cpu.data 81604.831706                       # average WriteReq miss latency
system.cpu.dcache.WriteReq_avg_miss_latency::total 81604.831706                       # average WriteReq miss latency
system.cpu.dcache.demand_avg_miss_latency::cpu.data 149520.919634                       # average overall miss latency
system.cpu.dcache.demand_avg_miss_latency::total 149520.919634                       # average overall miss latency
system.cpu.dcache.overall_avg_miss_latency::cpu.data 149520.919634                       # average overall miss latency
system.cpu.dcache.overall_avg_miss_latency::total 149520.919634                       # average overall miss latency
system.cpu.dcache.blocked_cycles::no_mshrs            0                       # number of cycles access was blocked
system.cpu.dcache.blocked_cycles::no_targets            0                       # number of cycles access was blocked
system.cpu.dcache.blocked::no_mshrs                 0                       # number of cycles access was blocked
system.cpu.dcache.blocked::no_targets               0                       # number of cycles access was blocked
system.cpu.dcache.avg_blocked_cycles::no_mshrs          nan                       # average number of cycles each access was blocked
system.cpu.dcache.avg_blocked_cycles::no_targets          nan                       # average number of cycles each access was blocked
system.cpu.dcache.writebacks::writebacks       657327                       # number of writebacks
system.cpu.dcache.writebacks::total            657327                       # number of writebacks
system.cpu.dcache.ReadReq_mshr_misses::cpu.data       615973                       # number of ReadReq MSHR misses
system.cpu.dcache.ReadReq_mshr_misses::total       615973                       # number of ReadReq MSHR misses
system.cpu.dcache.WriteReq_mshr_misses::cpu.data       283254                       # number of WriteReq MSHR misses
system.cpu.dcache.WriteReq_mshr_misses::total       283254                       # number of WriteReq MSHR misses
system.cpu.dcache.demand_mshr_misses::cpu.data       899227                       # number of demand (read+write) MSHR misses
system.cpu.dcache.demand_mshr_misses::total       899227                       # number of demand (read+write) MSHR misses
system.cpu.dcache.overall_mshr_misses::cpu.data       899227                       # number of overall MSHR misses
system.cpu.dcache.overall_mshr_misses::total       899227                       # number of overall MSHR misses
system.cpu.dcache.ReadReq_mshr_miss_latency::cpu.data 110722380000                       # number of ReadReq MSHR miss cycles
system.cpu.dcache.ReadReq_mshr_miss_latency::total 110722380000                       # number of ReadReq MSHR miss cycles
system.cpu.dcache.WriteReq_mshr_miss_latency::cpu.data  22831641000                       # number of WriteReq MSHR miss cycles
system.cpu.dcache.WriteReq_mshr_miss_latency::total  22831641000                       # number of WriteReq MSHR miss cycles
system.cpu.dcache.demand_mshr_miss_latency::cpu.data 133554021000                       # number of demand (read+write) MSHR miss cycles
system.cpu.dcache.demand_mshr_miss_latency::total 133554021000                       # number of demand (read+write) MSHR miss cycles
system.cpu.dcache.overall_mshr_miss_latency::cpu.data 133554021000                       # number of overall MSHR miss cycles
system.cpu.dcache.overall_mshr_miss_latency::total 133554021000                       # number of overall MSHR miss cycles
system.cpu.dcache.ReadReq_mshr_miss_rate::cpu.data     0.002585                       # mshr miss rate for ReadReq accesses
system.cpu.dcache.ReadReq_mshr_miss_rate::total     0.002585                       # mshr miss rate for ReadReq accesses
system.cpu.dcache.WriteReq_mshr_miss_rate::cpu.data     0.004400                       # mshr miss rate for WriteReq accesses
system.cpu.dcache.WriteReq_mshr_miss_rate::total     0.004400                       # mshr miss rate for WriteReq accesses
system.cpu.dcache.demand_mshr_miss_rate::cpu.data     0.002971                       # mshr miss rate for demand accesses
system.cpu.dcache.demand_mshr_miss_rate::total     0.002971                       # mshr miss rate for demand accesses
system.cpu.dcache.overall_mshr_miss_rate::cpu.data     0.002971                       # mshr miss rate for overall accesses
system.cpu.dcache.overall_mshr_miss_rate::total     0.002971                       # mshr miss rate for overall accesses
system.cpu.dcache.ReadReq_avg_mshr_miss_latency::cpu.data 179752.002117                       # average ReadReq mshr miss latency
system.cpu.dcache.ReadReq_avg_mshr_miss_latency::total 179752.002117                       # average ReadReq mshr miss latency
system.cpu.dcache.WriteReq_avg_mshr_miss_latency::cpu.data 80604.831706                       # average WriteReq mshr miss latency
system.cpu.dcache.WriteReq_avg_mshr_miss_latency::total 80604.831706                       # average WriteReq mshr miss latency
system.cpu.dcache.demand_avg_mshr_miss_latency::cpu.data 148520.919634                       # average overall mshr miss latency
system.cpu.dcache.demand_avg_mshr_miss_latency::total 148520.919634                       # average overall mshr miss latency
system.cpu.dcache.overall_avg_mshr_miss_latency::cpu.data 148520.919634                       # average overall mshr miss latency
system.cpu.dcache.overall_avg_mshr_miss_latency::total 148520.919634                       # average overall mshr miss latency
system.cpu.dcache.replacements                 681937                       # number of replacements
system.cpu.dtb_walker_cache.tags.pwrStateResidencyTicks::UNDEFINED 1113576417000                       # Cumulative time (in ticks) in various power states
system.cpu.dtb_walker_cache.tags.tagsinuse            0                       # Cycle average of tags in use
system.cpu.dtb_walker_cache.tags.total_refs            0                       # Total number of references to valid blocks.
system.cpu.dtb_walker_cache.tags.sampled_refs            0                       # Sample count of references to valid blocks.
system.cpu.dtb_walker_cache.tags.avg_refs          nan                       # Average number of references to valid blocks.
system.cpu.dtb_walker_cache.tags.warmup_cycle            0                       # Cycle when the warmup percentage was hit.
system.cpu.dtb_walker_cache.tags.tag_accesses            0                       # Number of tag accesses
system.cpu.dtb_walker_cache.tags.data_accesses            0                       # Number of data accesses
system.cpu.dtb_walker_cache.pwrStateResidencyTicks::UNDEFINED 1113576417000                       # Cumulative time (in ticks) in various power states
system.cpu.dtb_walker_cache.blocked_cycles::no_mshrs            0                       # number of cycles access was blocked
system.cpu.dtb_walker_cache.blocked_cycles::no_targets            0                       # number of cycles access was blocked
system.cpu.dtb_walker_cache.blocked::no_mshrs            0                       # number of cycles access was blocked
system.cpu.dtb_walker_cache.blocked::no_targets            0                       # number of cycles access was blocked
system.cpu.dtb_walker_cache.avg_blocked_cycles::no_mshrs          nan                       # average number of cycles each access was blocked
system.cpu.dtb_walker_cache.avg_blocked_cycles::no_targets          nan                       # average number of cycles each access was blocked
system.cpu.dtb_walker_cache.replacements            0                       # number of replacements
system.cpu.icache.tags.pwrStateResidencyTicks::UNDEFINED 1113576417000                       # Cumulative time (in ticks) in various power states
system.cpu.icache.tags.tagsinuse           280.477638                       # Cycle average of tags in use
system.cpu.icache.tags.total_refs           677335213                       # Total number of references to valid blocks.
system.cpu.icache.tags.sampled_refs               355                       # Sample count of references to valid blocks.
system.cpu.icache.tags.avg_refs          1907986.515493                       # Average number of references to valid blocks.
system.cpu.icache.tags.warmup_cycle            445000                       # Cycle when the warmup percentage was hit.
system.cpu.icache.tags.occ_blocks::cpu.inst   280.477638                       # Average occupied blocks per requestor
system.cpu.icache.tags.occ_percent::cpu.inst     0.547808                       # Average percentage of cache occupancy
system.cpu.icache.tags.occ_percent::total     0.547808                       # Average percentage of cache occupancy
system.cpu.icache.tags.occ_task_id_blocks::1024          309                       # Occupied blocks per task id
system.cpu.icache.tags.age_task_id_blocks_1024::0           15                       # Occupied blocks per task id
system.cpu.icache.tags.age_task_id_blocks_1024::1           23                       # Occupied blocks per task id
system.cpu.icache.tags.age_task_id_blocks_1024::4          271                       # Occupied blocks per task id
system.cpu.icache.tags.occ_task_id_percent::1024     0.603516                       # Percentage of cache occupancy per task id
system.cpu.icache.tags.tag_accesses        1354670781                       # Number of tag accesses
system.cpu.icache.tags.data_accesses       1354670781                       # Number of data accesses
system.cpu.icache.pwrStateResidencyTicks::UNDEFINED 1113576417000                       # Cumulative time (in ticks) in various power states
system.cpu.icache.ReadReq_hits::cpu.inst    677334858                       # number of ReadReq hits
system.cpu.icache.ReadReq_hits::total       677334858                       # number of ReadReq hits
system.cpu.icache.demand_hits::cpu.inst     677334858                       # number of demand (read+write) hits
system.cpu.icache.demand_hits::total        677334858                       # number of demand (read+write) hits
system.cpu.icache.overall_hits::cpu.inst    677334858                       # number of overall hits
system.cpu.icache.overall_hits::total       677334858                       # number of overall hits
system.cpu.icache.ReadReq_misses::cpu.inst          355                       # number of ReadReq misses
system.cpu.icache.ReadReq_misses::total           355                       # number of ReadReq misses
system.cpu.icache.demand_misses::cpu.inst          355                       # number of demand (read+write) misses
system.cpu.icache.demand_misses::total            355                       # number of demand (read+write) misses
system.cpu.icache.overall_misses::cpu.inst          355                       # number of overall misses
system.cpu.icache.overall_misses::total           355                       # number of overall misses
system.cpu.icache.ReadReq_miss_latency::cpu.inst     66885000                       # number of ReadReq miss cycles
system.cpu.icache.ReadReq_miss_latency::total     66885000                       # number of ReadReq miss cycles
system.cpu.icache.demand_miss_latency::cpu.inst     66885000                       # number of demand (read+write) miss cycles
system.cpu.icache.demand_miss_latency::total     66885000                       # number of demand (read+write) miss cycles
system.cpu.icache.overall_miss_latency::cpu.inst     66885000                       # number of overall miss cycles
system.cpu.icache.overall_miss_latency::total     66885000                       # number of overall miss cycles
system.cpu.icache.ReadReq_accesses::cpu.inst    677335213                       # number of ReadReq accesses(hits+misses)
system.cpu.icache.ReadReq_accesses::total    677335213                       # number of ReadReq accesses(hits+misses)
system.cpu.icache.demand_accesses::cpu.inst    677335213                       # number of demand (read+write) accesses
system.cpu.icache.demand_accesses::total    677335213                       # number of demand (read+write) accesses
system.cpu.icache.overall_accesses::cpu.inst    677335213                       # number of overall (read+write) accesses
system.cpu.icache.overall_accesses::total    677335213                       # number of overall (read+write) accesses
system.cpu.icache.ReadReq_miss_rate::cpu.inst     0.000001                       # miss rate for ReadReq accesses
system.cpu.icache.ReadReq_miss_rate::total     0.000001                       # miss rate for ReadReq accesses
system.cpu.icache.demand_miss_rate::cpu.inst     0.000001                       # miss rate for demand accesses
system.cpu.icache.demand_miss_rate::total     0.000001                       # miss rate for demand accesses
system.cpu.icache.overall_miss_rate::cpu.inst     0.000001                       # miss rate for overall accesses
system.cpu.icache.overall_miss_rate::total     0.000001                       # miss rate for overall accesses
system.cpu.icache.ReadReq_avg_miss_latency::cpu.inst 188408.450704                       # average ReadReq miss latency
system.cpu.icache.ReadReq_avg_miss_latency::total 188408.450704                       # average ReadReq miss latency
system.cpu.icache.demand_avg_miss_latency::cpu.inst 188408.450704                       # average overall miss latency
system.cpu.icache.demand_avg_miss_latency::total 188408.450704                       # average overall miss latency
system.cpu.icache.overall_avg_miss_latency::cpu.inst 188408.450704                       # average overall miss latency
system.cpu.icache.overall_avg_miss_latency::total 188408.450704                       # average overall miss latency
system.cpu.icache.blocked_cycles::no_mshrs            0                       # number of cycles access was blocked
system.cpu.icache.blocked_cycles::no_targets            0                       # number of cycles access was blocked
system.cpu.icache.blocked::no_mshrs                 0                       # number of cycles access was blocked
system.cpu.icache.blocked::no_targets               0                       # number of cycles access was blocked
system.cpu.icache.avg_blocked_cycles::no_mshrs          nan                       # average number of cycles each access was blocked
system.cpu.icache.avg_blocked_cycles::no_targets          nan                       # average number of cycles each access was blocked
system.cpu.icache.writebacks::writebacks           46                       # number of writebacks
system.cpu.icache.writebacks::total                46                       # number of writebacks
system.cpu.icache.ReadReq_mshr_misses::cpu.inst          355                       # number of ReadReq MSHR misses
system.cpu.icache.ReadReq_mshr_misses::total          355                       # number of ReadReq MSHR misses
system.cpu.icache.demand_mshr_misses::cpu.inst          355                       # number of demand (read+write) MSHR misses
system.cpu.icache.demand_mshr_misses::total          355                       # number of demand (read+write) MSHR misses
system.cpu.icache.overall_mshr_misses::cpu.inst          355                       # number of overall MSHR misses
system.cpu.icache.overall_mshr_misses::total          355                       # number of overall MSHR misses
system.cpu.icache.ReadReq_mshr_miss_latency::cpu.inst     66530000                       # number of ReadReq MSHR miss cycles
system.cpu.icache.ReadReq_mshr_miss_latency::total     66530000                       # number of ReadReq MSHR miss cycles
system.cpu.icache.demand_mshr_miss_latency::cpu.inst     66530000                       # number of demand (read+write) MSHR miss cycles
system.cpu.icache.demand_mshr_miss_latency::total     66530000                       # number of demand (read+write) MSHR miss cycles
system.cpu.icache.overall_mshr_miss_latency::cpu.inst     66530000                       # number of overall MSHR miss cycles
system.cpu.icache.overall_mshr_miss_latency::total     66530000                       # number of overall MSHR miss cycles
system.cpu.icache.ReadReq_mshr_miss_rate::cpu.inst     0.000001                       # mshr miss rate for ReadReq accesses
system.cpu.icache.ReadReq_mshr_miss_rate::total     0.000001                       # mshr miss rate for ReadReq accesses
system.cpu.icache.demand_mshr_miss_rate::cpu.inst     0.000001                       # mshr miss rate for demand accesses
system.cpu.icache.demand_mshr_miss_rate::total     0.000001                       # mshr miss rate for demand accesses
system.cpu.icache.overall_mshr_miss_rate::cpu.inst     0.000001                       # mshr miss rate for overall accesses
system.cpu.icache.overall_mshr_miss_rate::total     0.000001                       # mshr miss rate for overall accesses
system.cpu.icache.ReadReq_avg_mshr_miss_latency::cpu.inst 187408.450704                       # average ReadReq mshr miss latency
system.cpu.icache.ReadReq_avg_mshr_miss_latency::total 187408.450704                       # average ReadReq mshr miss latency
system.cpu.icache.demand_avg_mshr_miss_latency::cpu.inst 187408.450704                       # average overall mshr miss latency
system.cpu.icache.demand_avg_mshr_miss_latency::total 187408.450704                       # average overall mshr miss latency
system.cpu.icache.overall_avg_mshr_miss_latency::cpu.inst 187408.450704                       # average overall mshr miss latency
system.cpu.icache.overall_avg_mshr_miss_latency::total 187408.450704                       # average overall mshr miss latency
system.cpu.icache.replacements                     46                       # number of replacements
system.cpu.itb_walker_cache.tags.pwrStateResidencyTicks::UNDEFINED 1113576417000                       # Cumulative time (in ticks) in various power states
system.cpu.itb_walker_cache.tags.tagsinuse            0                       # Cycle average of tags in use
system.cpu.itb_walker_cache.tags.total_refs            0                       # Total number of references to valid blocks.
system.cpu.itb_walker_cache.tags.sampled_refs            0                       # Sample count of references to valid blocks.
system.cpu.itb_walker_cache.tags.avg_refs          nan                       # Average number of references to valid blocks.
system.cpu.itb_walker_cache.tags.warmup_cycle            0                       # Cycle when the warmup percentage was hit.
system.cpu.itb_walker_cache.tags.tag_accesses            0                       # Number of tag accesses
system.cpu.itb_walker_cache.tags.data_accesses            0                       # Number of data accesses
system.cpu.itb_walker_cache.pwrStateResidencyTicks::UNDEFINED 1113576417000                       # Cumulative time (in ticks) in various power states
system.cpu.itb_walker_cache.blocked_cycles::no_mshrs            0                       # number of cycles access was blocked
system.cpu.itb_walker_cache.blocked_cycles::no_targets            0                       # number of cycles access was blocked
system.cpu.itb_walker_cache.blocked::no_mshrs            0                       # number of cycles access was blocked
system.cpu.itb_walker_cache.blocked::no_targets            0                       # number of cycles access was blocked
system.cpu.itb_walker_cache.avg_blocked_cycles::no_mshrs          nan                       # average number of cycles each access was blocked
system.cpu.itb_walker_cache.avg_blocked_cycles::no_targets          nan                       # average number of cycles each access was blocked
system.cpu.itb_walker_cache.replacements            0                       # number of replacements
system.l2.tags.pwrStateResidencyTicks::UNDEFINED 1113576417000                       # Cumulative time (in ticks) in various power states
system.l2.tags.tagsinuse                  2045.621202                       # Cycle average of tags in use
system.l2.tags.total_refs                     1581565                       # Total number of references to valid blocks.
system.l2.tags.sampled_refs                    518834                       # Sample count of references to valid blocks.
system.l2.tags.avg_refs                      3.048306                       # Average number of references to valid blocks.
system.l2.tags.warmup_cycle                    434500                       # Cycle when the warmup percentage was hit.
system.l2.tags.occ_blocks::writebacks        1.002667                       # Average occupied blocks per requestor
system.l2.tags.occ_blocks::cpu.inst          0.929347                       # Average occupied blocks per requestor
system.l2.tags.occ_blocks::cpu.data       2043.689188                       # Average occupied blocks per requestor
system.l2.tags.occ_percent::writebacks       0.000490                       # Average percentage of cache occupancy
system.l2.tags.occ_percent::cpu.inst         0.000454                       # Average percentage of cache occupancy
system.l2.tags.occ_percent::cpu.data         0.997895                       # Average percentage of cache occupancy
system.l2.tags.occ_percent::total            0.998838                       # Average percentage of cache occupancy
system.l2.tags.occ_task_id_blocks::1024          2048                       # Occupied blocks per task id
system.l2.tags.age_task_id_blocks_1024::0           31                       # Occupied blocks per task id
system.l2.tags.age_task_id_blocks_1024::1           46                       # Occupied blocks per task id
system.l2.tags.age_task_id_blocks_1024::3          450                       # Occupied blocks per task id
system.l2.tags.age_task_id_blocks_1024::4         1521                       # Occupied blocks per task id
system.l2.tags.occ_task_id_percent::1024            1                       # Percentage of cache occupancy per task id
system.l2.tags.tag_accesses                  13171354                       # Number of tag accesses
system.l2.tags.data_accesses                 13171354                       # Number of data accesses
system.l2.pwrStateResidencyTicks::UNDEFINED 1113576417000                       # Cumulative time (in ticks) in various power states
system.l2.WritebackDirty_hits::writebacks       657327                       # number of WritebackDirty hits
system.l2.WritebackDirty_hits::total           657327                       # number of WritebackDirty hits
system.l2.WritebackClean_hits::writebacks           46                       # number of WritebackClean hits
system.l2.WritebackClean_hits::total               46                       # number of WritebackClean hits
system.l2.UpgradeReq_hits::cpu.data            216778                       # number of UpgradeReq hits
system.l2.UpgradeReq_hits::total               216778                       # number of UpgradeReq hits
system.l2.ReadExReq_hits::cpu.data               3040                       # number of ReadExReq hits
system.l2.ReadExReq_hits::total                  3040                       # number of ReadExReq hits
system.l2.ReadSharedReq_hits::cpu.data         161030                       # number of ReadSharedReq hits
system.l2.ReadSharedReq_hits::total            161030                       # number of ReadSharedReq hits
system.l2.demand_hits::cpu.data                164070                       # number of demand (read+write) hits
system.l2.demand_hits::total                   164070                       # number of demand (read+write) hits
system.l2.overall_hits::cpu.data               164070                       # number of overall hits
system.l2.overall_hits::total                  164070                       # number of overall hits
system.l2.ReadExReq_misses::cpu.data            63436                       # number of ReadExReq misses
system.l2.ReadExReq_misses::total               63436                       # number of ReadExReq misses
system.l2.ReadCleanReq_misses::cpu.inst           355                       # number of ReadCleanReq misses
system.l2.ReadCleanReq_misses::total              355                       # number of ReadCleanReq misses
system.l2.ReadSharedReq_misses::cpu.data       454943                       # number of ReadSharedReq misses
system.l2.ReadSharedReq_misses::total          454943                       # number of ReadSharedReq misses
system.l2.demand_misses::cpu.inst                 355                       # number of demand (read+write) misses
system.l2.demand_misses::cpu.data              518379                       # number of demand (read+write) misses
system.l2.demand_misses::total                 518734                       # number of demand (read+write) misses
system.l2.overall_misses::cpu.inst                355                       # number of overall misses
system.l2.overall_misses::cpu.data             518379                       # number of overall misses
system.l2.overall_misses::total                518734                       # number of overall misses
system.l2.ReadExReq_miss_latency::cpu.data  20098671000                       # number of ReadExReq miss cycles
system.l2.ReadExReq_miss_latency::total   20098671000                       # number of ReadExReq miss cycles
system.l2.ReadCleanReq_miss_latency::cpu.inst     65996000                       # number of ReadCleanReq miss cycles
system.l2.ReadCleanReq_miss_latency::total     65996000                       # number of ReadCleanReq miss cycles
system.l2.ReadSharedReq_miss_latency::cpu.data 108107605000                       # number of ReadSharedReq miss cycles
system.l2.ReadSharedReq_miss_latency::total 108107605000                       # number of ReadSharedReq miss cycles
system.l2.demand_miss_latency::cpu.inst      65996000                       # number of demand (read+write) miss cycles
system.l2.demand_miss_latency::cpu.data  128206276000                       # number of demand (read+write) miss cycles
system.l2.demand_miss_latency::total     128272272000                       # number of demand (read+write) miss cycles
system.l2.overall_miss_latency::cpu.inst     65996000                       # number of overall miss cycles
system.l2.overall_miss_latency::cpu.data 128206276000                       # number of overall miss cycles
system.l2.overall_miss_latency::total    128272272000                       # number of overall miss cycles
system.l2.WritebackDirty_accesses::writebacks       657327                       # number of WritebackDirty accesses(hits+misses)
system.l2.WritebackDirty_accesses::total       657327                       # number of WritebackDirty accesses(hits+misses)
system.l2.WritebackClean_accesses::writebacks           46                       # number of WritebackClean accesses(hits+misses)
system.l2.WritebackClean_accesses::total           46                       # number of WritebackClean accesses(hits+misses)
system.l2.UpgradeReq_accesses::cpu.data        216778                       # number of UpgradeReq accesses(hits+misses)
system.l2.UpgradeReq_accesses::total           216778                       # number of UpgradeReq accesses(hits+misses)
system.l2.ReadExReq_accesses::cpu.data          66476                       # number of ReadExReq accesses(hits+misses)
system.l2.ReadExReq_accesses::total             66476                       # number of ReadExReq accesses(hits+misses)
system.l2.ReadCleanReq_accesses::cpu.inst          355                       # number of ReadCleanReq accesses(hits+misses)
system.l2.ReadCleanReq_accesses::total            355                       # number of ReadCleanReq accesses(hits+misses)
system.l2.ReadSharedReq_accesses::cpu.data       615973                       # number of ReadSharedReq accesses(hits+misses)
system.l2.ReadSharedReq_accesses::total        615973                       # number of ReadSharedReq accesses(hits+misses)
system.l2.demand_accesses::cpu.inst               355                       # number of demand (read+write) accesses
system.l2.demand_accesses::cpu.data            682449                       # number of demand (read+write) accesses
system.l2.demand_accesses::total               682804                       # number of demand (read+write) accesses
system.l2.overall_accesses::cpu.inst              355                       # number of overall (read+write) accesses
system.l2.overall_accesses::cpu.data           682449                       # number of overall (read+write) accesses
system.l2.overall_accesses::total              682804                       # number of overall (read+write) accesses
system.l2.ReadExReq_miss_rate::cpu.data      0.954269                       # miss rate for ReadExReq accesses
system.l2.ReadExReq_miss_rate::total         0.954269                       # miss rate for ReadExReq accesses
system.l2.ReadCleanReq_miss_rate::cpu.inst            1                       # miss rate for ReadCleanReq accesses
system.l2.ReadCleanReq_miss_rate::total             1                       # miss rate for ReadCleanReq accesses
system.l2.ReadSharedReq_miss_rate::cpu.data     0.738576                       # miss rate for ReadSharedReq accesses
system.l2.ReadSharedReq_miss_rate::total     0.738576                       # miss rate for ReadSharedReq accesses
system.l2.demand_miss_rate::cpu.inst                1                       # miss rate for demand accesses
system.l2.demand_miss_rate::cpu.data         0.759586                       # miss rate for demand accesses
system.l2.demand_miss_rate::total            0.759711                       # miss rate for demand accesses
system.l2.overall_miss_rate::cpu.inst               1                       # miss rate for overall accesses
system.l2.overall_miss_rate::cpu.data        0.759586                       # miss rate for overall accesses
system.l2.overall_miss_rate::total           0.759711                       # miss rate for overall accesses
system.l2.ReadExReq_avg_miss_latency::cpu.data 316833.832524                       # average ReadExReq miss latency
system.l2.ReadExReq_avg_miss_latency::total 316833.832524                       # average ReadExReq miss latency
system.l2.ReadCleanReq_avg_miss_latency::cpu.inst 185904.225352                       # average ReadCleanReq miss latency
system.l2.ReadCleanReq_avg_miss_latency::total 185904.225352                       # average ReadCleanReq miss latency
system.l2.ReadSharedReq_avg_miss_latency::cpu.data 237628.900763                       # average ReadSharedReq miss latency
system.l2.ReadSharedReq_avg_miss_latency::total 237628.900763                       # average ReadSharedReq miss latency
system.l2.demand_avg_miss_latency::cpu.inst 185904.225352                       # average overall miss latency
system.l2.demand_avg_miss_latency::cpu.data 247321.508009                       # average overall miss latency
system.l2.demand_avg_miss_latency::total 247279.476572                       # average overall miss latency
system.l2.overall_avg_miss_latency::cpu.inst 185904.225352                       # average overall miss latency
system.l2.overall_avg_miss_latency::cpu.data 247321.508009                       # average overall miss latency
system.l2.overall_avg_miss_latency::total 247279.476572                       # average overall miss latency
system.l2.blocked_cycles::no_mshrs                  0                       # number of cycles access was blocked
system.l2.blocked_cycles::no_targets                0                       # number of cycles access was blocked
system.l2.blocked::no_mshrs                         0                       # number of cycles access was blocked
system.l2.blocked::no_targets                       0                       # number of cycles access was blocked
system.l2.avg_blocked_cycles::no_mshrs            nan                       # average number of cycles each access was blocked
system.l2.avg_blocked_cycles::no_targets          nan                       # average number of cycles each access was blocked
system.l2.writebacks::writebacks               508257                       # number of writebacks
system.l2.writebacks::total                    508257                       # number of writebacks
system.l2.ReadExReq_mshr_misses::cpu.data        63436                       # number of ReadExReq MSHR misses
system.l2.ReadExReq_mshr_misses::total          63436                       # number of ReadExReq MSHR misses
system.l2.ReadCleanReq_mshr_misses::cpu.inst          355                       # number of ReadCleanReq MSHR misses
system.l2.ReadCleanReq_mshr_misses::total          355                       # number of ReadCleanReq MSHR misses
system.l2.ReadSharedReq_mshr_misses::cpu.data       454943                       # number of ReadSharedReq MSHR misses
system.l2.ReadSharedReq_mshr_misses::total       454943                       # number of ReadSharedReq MSHR misses
system.l2.demand_mshr_misses::cpu.inst            355                       # number of demand (read+write) MSHR misses
system.l2.demand_mshr_misses::cpu.data         518379                       # number of demand (read+write) MSHR misses
system.l2.demand_mshr_misses::total            518734                       # number of demand (read+write) MSHR misses
system.l2.overall_mshr_misses::cpu.inst           355                       # number of overall MSHR misses
system.l2.overall_mshr_misses::cpu.data        518379                       # number of overall MSHR misses
system.l2.overall_mshr_misses::total           518734                       # number of overall MSHR misses
system.l2.ReadExReq_mshr_miss_latency::cpu.data  19464311000                       # number of ReadExReq MSHR miss cycles
system.l2.ReadExReq_mshr_miss_latency::total  19464311000                       # number of ReadExReq MSHR miss cycles
system.l2.ReadCleanReq_mshr_miss_latency::cpu.inst     62446000                       # number of ReadCleanReq MSHR miss cycles
system.l2.ReadCleanReq_mshr_miss_latency::total     62446000                       # number of ReadCleanReq MSHR miss cycles
system.l2.ReadSharedReq_mshr_miss_latency::cpu.data 103558175000                       # number of ReadSharedReq MSHR miss cycles
system.l2.ReadSharedReq_mshr_miss_latency::total 103558175000                       # number of ReadSharedReq MSHR miss cycles
system.l2.demand_mshr_miss_latency::cpu.inst     62446000                       # number of demand (read+write) MSHR miss cycles
system.l2.demand_mshr_miss_latency::cpu.data 123022486000                       # number of demand (read+write) MSHR miss cycles
system.l2.demand_mshr_miss_latency::total 123084932000                       # number of demand (read+write) MSHR miss cycles
system.l2.overall_mshr_miss_latency::cpu.inst     62446000                       # number of overall MSHR miss cycles
system.l2.overall_mshr_miss_latency::cpu.data 123022486000                       # number of overall MSHR miss cycles
system.l2.overall_mshr_miss_latency::total 123084932000                       # number of overall MSHR miss cycles
system.l2.ReadExReq_mshr_miss_rate::cpu.data     0.954269                       # mshr miss rate for ReadExReq accesses
system.l2.ReadExReq_mshr_miss_rate::total     0.954269                       # mshr miss rate for ReadExReq accesses
system.l2.ReadCleanReq_mshr_miss_rate::cpu.inst            1                       # mshr miss rate for ReadCleanReq accesses
system.l2.ReadCleanReq_mshr_miss_rate::total            1                       # mshr miss rate for ReadCleanReq accesses
system.l2.ReadSharedReq_mshr_miss_rate::cpu.data     0.738576                       # mshr miss rate for ReadSharedReq accesses
system.l2.ReadSharedReq_mshr_miss_rate::total     0.738576                       # mshr miss rate for ReadSharedReq accesses
system.l2.demand_mshr_miss_rate::cpu.inst            1                       # mshr miss rate for demand accesses
system.l2.demand_mshr_miss_rate::cpu.data     0.759586                       # mshr miss rate for demand accesses
system.l2.demand_mshr_miss_rate::total       0.759711                       # mshr miss rate for demand accesses
system.l2.overall_mshr_miss_rate::cpu.inst            1                       # mshr miss rate for overall accesses
system.l2.overall_mshr_miss_rate::cpu.data     0.759586                       # mshr miss rate for overall accesses
system.l2.overall_mshr_miss_rate::total      0.759711                       # mshr miss rate for overall accesses
system.l2.ReadExReq_avg_mshr_miss_latency::cpu.data 306833.832524                       # average ReadExReq mshr miss latency
system.l2.ReadExReq_avg_mshr_miss_latency::total 306833.832524                       # average ReadExReq mshr miss latency
system.l2.ReadCleanReq_avg_mshr_miss_latency::cpu.inst 175904.225352                       # average ReadCleanReq mshr miss latency
system.l2.ReadCleanReq_avg_mshr_miss_latency::total 175904.225352                       # average ReadCleanReq mshr miss latency
system.l2.ReadSharedReq_avg_mshr_miss_latency::cpu.data 227628.900763                       # average ReadSharedReq mshr miss latency
system.l2.ReadSharedReq_avg_mshr_miss_latency::total 227628.900763                       # average ReadSharedReq mshr miss latency
system.l2.demand_avg_mshr_miss_latency::cpu.inst 175904.225352                       # average overall mshr miss latency
system.l2.demand_avg_mshr_miss_latency::cpu.data 237321.508009                       # average overall mshr miss latency
system.l2.demand_avg_mshr_miss_latency::total 237279.476572                       # average overall mshr miss latency
system.l2.overall_avg_mshr_miss_latency::cpu.inst 175904.225352                       # average overall mshr miss latency
system.l2.overall_avg_mshr_miss_latency::cpu.data 237321.508009                       # average overall mshr miss latency
system.l2.overall_avg_mshr_miss_latency::total 237279.476572                       # average overall mshr miss latency
system.l2.replacements                         516786                       # number of replacements
system.l3.tags.pwrStateResidencyTicks::UNDEFINED 1113576417000                       # Cumulative time (in ticks) in various power states
system.l3.tags.tagsinuse                 16154.070756                       # Cycle average of tags in use
system.l3.tags.total_refs                     1035149                       # Total number of references to valid blocks.
system.l3.tags.sampled_refs                    283147                       # Sample count of references to valid blocks.
system.l3.tags.avg_refs                      3.655871                       # Average number of references to valid blocks.
system.l3.tags.warmup_cycle                    418000                       # Cycle when the warmup percentage was hit.
system.l3.tags.occ_blocks::writebacks        1.224700                       # Average occupied blocks per requestor
system.l3.tags.occ_blocks::cpu.inst          8.103265                       # Average occupied blocks per requestor
system.l3.tags.occ_blocks::cpu.data      16144.742791                       # Average occupied blocks per requestor
system.l3.tags.occ_percent::writebacks       0.000075                       # Average percentage of cache occupancy
system.l3.tags.occ_percent::cpu.inst         0.000495                       # Average percentage of cache occupancy
system.l3.tags.occ_percent::cpu.data         0.985397                       # Average percentage of cache occupancy
system.l3.tags.occ_percent::total            0.985966                       # Average percentage of cache occupancy
system.l3.tags.occ_task_id_blocks::1024         16384                       # Occupied blocks per task id
system.l3.tags.age_task_id_blocks_1024::0           26                       # Occupied blocks per task id
system.l3.tags.age_task_id_blocks_1024::1           39                       # Occupied blocks per task id
system.l3.tags.age_task_id_blocks_1024::4        16319                       # Occupied blocks per task id
system.l3.tags.occ_task_id_percent::1024            1                       # Percentage of cache occupancy per task id
system.l3.tags.tag_accesses                   4423743                       # Number of tag accesses
system.l3.tags.data_accesses                  4423743                       # Number of data accesses
system.l3.pwrStateResidencyTicks::UNDEFINED 1113576417000                       # Cumulative time (in ticks) in various power states
system.l3.WritebackDirty_hits::writebacks       508257                       # number of WritebackDirty hits
system.l3.WritebackDirty_hits::total           508257                       # number of WritebackDirty hits
system.l3.ReadExReq_hits::cpu.data                691                       # number of ReadExReq hits
system.l3.ReadExReq_hits::total                   691                       # number of ReadExReq hits
system.l3.ReadSharedReq_hits::cpu.data         234910                       # number of ReadSharedReq hits
system.l3.ReadSharedReq_hits::total            234910                       # number of ReadSharedReq hits
system.l3.demand_hits::cpu.data                235601                       # number of demand (read+write) hits
system.l3.demand_hits::total                   235601                       # number of demand (read+write) hits
system.l3.overall_hits::cpu.data               235601                       # number of overall hits
system.l3.overall_hits::total                  235601                       # number of overall hits
system.l3.ReadExReq_misses::cpu.data            62745                       # number of ReadExReq misses
system.l3.ReadExReq_misses::total               62745                       # number of ReadExReq misses
system.l3.ReadSharedReq_misses::cpu.inst          355                       # number of ReadSharedReq misses
system.l3.ReadSharedReq_misses::cpu.data       220033                       # number of ReadSharedReq misses
system.l3.ReadSharedReq_misses::total          220388                       # number of ReadSharedReq misses
system.l3.demand_misses::cpu.inst                 355                       # number of demand (read+write) misses
system.l3.demand_misses::cpu.data              282778                       # number of demand (read+write) misses
system.l3.demand_misses::total                 283133                       # number of demand (read+write) misses
system.l3.overall_misses::cpu.inst                355                       # number of overall misses
system.l3.overall_misses::cpu.data             282778                       # number of overall misses
system.l3.overall_misses::total                283133                       # number of overall misses
system.l3.ReadExReq_miss_latency::cpu.data  18755113500                       # number of ReadExReq miss cycles
system.l3.ReadExReq_miss_latency::total   18755113500                       # number of ReadExReq miss cycles
system.l3.ReadSharedReq_miss_latency::cpu.inst     58541000                       # number of ReadSharedReq miss cycles
system.l3.ReadSharedReq_miss_latency::cpu.data  94677787000                       # number of ReadSharedReq miss cycles
system.l3.ReadSharedReq_miss_latency::total  94736328000                       # number of ReadSharedReq miss cycles
system.l3.demand_miss_latency::cpu.inst      58541000                       # number of demand (read+write) miss cycles
system.l3.demand_miss_latency::cpu.data  113432900500                       # number of demand (read+write) miss cycles
system.l3.demand_miss_latency::total     113491441500                       # number of demand (read+write) miss cycles
system.l3.overall_miss_latency::cpu.inst     58541000                       # number of overall miss cycles
system.l3.overall_miss_latency::cpu.data 113432900500                       # number of overall miss cycles
system.l3.overall_miss_latency::total    113491441500                       # number of overall miss cycles
system.l3.WritebackDirty_accesses::writebacks       508257                       # number of WritebackDirty accesses(hits+misses)
system.l3.WritebackDirty_accesses::total       508257                       # number of WritebackDirty accesses(hits+misses)
system.l3.ReadExReq_accesses::cpu.data          63436                       # number of ReadExReq accesses(hits+misses)
system.l3.ReadExReq_accesses::total             63436                       # number of ReadExReq accesses(hits+misses)
system.l3.ReadSharedReq_accesses::cpu.inst          355                       # number of ReadSharedReq accesses(hits+misses)
system.l3.ReadSharedReq_accesses::cpu.data       454943                       # number of ReadSharedReq accesses(hits+misses)
system.l3.ReadSharedReq_accesses::total        455298                       # number of ReadSharedReq accesses(hits+misses)
system.l3.demand_accesses::cpu.inst               355                       # number of demand (read+write) accesses
system.l3.demand_accesses::cpu.data            518379                       # number of demand (read+write) accesses
system.l3.demand_accesses::total               518734                       # number of demand (read+write) accesses
system.l3.overall_accesses::cpu.inst              355                       # number of overall (read+write) accesses
system.l3.overall_accesses::cpu.data           518379                       # number of overall (read+write) accesses
system.l3.overall_accesses::total              518734                       # number of overall (read+write) accesses
system.l3.ReadExReq_miss_rate::cpu.data      0.989107                       # miss rate for ReadExReq accesses
system.l3.ReadExReq_miss_rate::total         0.989107                       # miss rate for ReadExReq accesses
system.l3.ReadSharedReq_miss_rate::cpu.inst            1                       # miss rate for ReadSharedReq accesses
system.l3.ReadSharedReq_miss_rate::cpu.data     0.483650                       # miss rate for ReadSharedReq accesses
system.l3.ReadSharedReq_miss_rate::total     0.484052                       # miss rate for ReadSharedReq accesses
system.l3.demand_miss_rate::cpu.inst                1                       # miss rate for demand accesses
system.l3.demand_miss_rate::cpu.data         0.545504                       # miss rate for demand accesses
system.l3.demand_miss_rate::total            0.545815                       # miss rate for demand accesses
system.l3.overall_miss_rate::cpu.inst               1                       # miss rate for overall accesses
system.l3.overall_miss_rate::cpu.data        0.545504                       # miss rate for overall accesses
system.l3.overall_miss_rate::total           0.545815                       # miss rate for overall accesses
system.l3.ReadExReq_avg_miss_latency::cpu.data 298910.088453                       # average ReadExReq miss latency
system.l3.ReadExReq_avg_miss_latency::total 298910.088453                       # average ReadExReq miss latency
system.l3.ReadSharedReq_avg_miss_latency::cpu.inst 164904.225352                       # average ReadSharedReq miss latency
system.l3.ReadSharedReq_avg_miss_latency::cpu.data 430289.033918                       # average ReadSharedReq miss latency
system.l3.ReadSharedReq_avg_miss_latency::total 429861.553261                       # average ReadSharedReq miss latency
system.l3.demand_avg_miss_latency::cpu.inst 164904.225352                       # average overall miss latency
system.l3.demand_avg_miss_latency::cpu.data 401137.643310                       # average overall miss latency
system.l3.demand_avg_miss_latency::total 400841.447306                       # average overall miss latency
system.l3.overall_avg_miss_latency::cpu.inst 164904.225352                       # average overall miss latency
system.l3.overall_avg_miss_latency::cpu.data 401137.643310                       # average overall miss latency
system.l3.overall_avg_miss_latency::total 400841.447306                       # average overall miss latency
system.l3.blocked_cycles::no_mshrs                  0                       # number of cycles access was blocked
system.l3.blocked_cycles::no_targets                0                       # number of cycles access was blocked
system.l3.blocked::no_mshrs                         0                       # number of cycles access was blocked
system.l3.blocked::no_targets                       0                       # number of cycles access was blocked
system.l3.avg_blocked_cycles::no_mshrs            nan                       # average number of cycles each access was blocked
system.l3.avg_blocked_cycles::no_targets          nan                       # average number of cycles each access was blocked
system.l3.writebacks::writebacks               260058                       # number of writebacks
system.l3.writebacks::total                    260058                       # number of writebacks
system.l3.ReadExReq_mshr_misses::cpu.data        62745                       # number of ReadExReq MSHR misses
system.l3.ReadExReq_mshr_misses::total          62745                       # number of ReadExReq MSHR misses
system.l3.ReadSharedReq_mshr_misses::cpu.inst          355                       # number of ReadSharedReq MSHR misses
system.l3.ReadSharedReq_mshr_misses::cpu.data       220033                       # number of ReadSharedReq MSHR misses
system.l3.ReadSharedReq_mshr_misses::total       220388                       # number of ReadSharedReq MSHR misses
system.l3.demand_mshr_misses::cpu.inst            355                       # number of demand (read+write) MSHR misses
system.l3.demand_mshr_misses::cpu.data         282778                       # number of demand (read+write) MSHR misses
system.l3.demand_mshr_misses::total            283133                       # number of demand (read+write) MSHR misses
system.l3.overall_mshr_misses::cpu.inst           355                       # number of overall MSHR misses
system.l3.overall_mshr_misses::cpu.data        282778                       # number of overall MSHR misses
system.l3.overall_mshr_misses::total           283133                       # number of overall MSHR misses
system.l3.ReadExReq_mshr_miss_latency::cpu.data  17751193500                       # number of ReadExReq MSHR miss cycles
system.l3.ReadExReq_mshr_miss_latency::total  17751193500                       # number of ReadExReq MSHR miss cycles
system.l3.ReadSharedReq_mshr_miss_latency::cpu.inst     52861000                       # number of ReadSharedReq MSHR miss cycles
system.l3.ReadSharedReq_mshr_miss_latency::cpu.data  91157259000                       # number of ReadSharedReq MSHR miss cycles
system.l3.ReadSharedReq_mshr_miss_latency::total  91210120000                       # number of ReadSharedReq MSHR miss cycles
system.l3.demand_mshr_miss_latency::cpu.inst     52861000                       # number of demand (read+write) MSHR miss cycles
system.l3.demand_mshr_miss_latency::cpu.data 108908452500                       # number of demand (read+write) MSHR miss cycles
system.l3.demand_mshr_miss_latency::total 108961313500                       # number of demand (read+write) MSHR miss cycles
system.l3.overall_mshr_miss_latency::cpu.inst     52861000                       # number of overall MSHR miss cycles
system.l3.overall_mshr_miss_latency::cpu.data 108908452500                       # number of overall MSHR miss cycles
system.l3.overall_mshr_miss_latency::total 108961313500                       # number of overall MSHR miss cycles
system.l3.ReadExReq_mshr_miss_rate::cpu.data     0.989107                       # mshr miss rate for ReadExReq accesses
system.l3.ReadExReq_mshr_miss_rate::total     0.989107                       # mshr miss rate for ReadExReq accesses
system.l3.ReadSharedReq_mshr_miss_rate::cpu.inst            1                       # mshr miss rate for ReadSharedReq accesses
system.l3.ReadSharedReq_mshr_miss_rate::cpu.data     0.483650                       # mshr miss rate for ReadSharedReq accesses
system.l3.ReadSharedReq_mshr_miss_rate::total     0.484052                       # mshr miss rate for ReadSharedReq accesses
system.l3.demand_mshr_miss_rate::cpu.inst            1                       # mshr miss rate for demand accesses
system.l3.demand_mshr_miss_rate::cpu.data     0.545504                       # mshr miss rate for demand accesses
system.l3.demand_mshr_miss_rate::total       0.545815                       # mshr miss rate for demand accesses
system.l3.overall_mshr_miss_rate::cpu.inst            1                       # mshr miss rate for overall accesses
system.l3.overall_mshr_miss_rate::cpu.data     0.545504                       # mshr miss rate for overall accesses
system.l3.overall_mshr_miss_rate::total      0.545815                       # mshr miss rate for overall accesses
system.l3.ReadExReq_avg_mshr_miss_latency::cpu.data 282910.088453                       # average ReadExReq mshr miss latency
system.l3.ReadExReq_avg_mshr_miss_latency::total 282910.088453                       # average ReadExReq mshr miss latency
system.l3.ReadSharedReq_avg_mshr_miss_latency::cpu.inst 148904.225352                       # average ReadSharedReq mshr miss latency
system.l3.ReadSharedReq_avg_mshr_miss_latency::cpu.data 414289.033918                       # average ReadSharedReq mshr miss latency
system.l3.ReadSharedReq_avg_mshr_miss_latency::total 413861.553261                       # average ReadSharedReq mshr miss latency
system.l3.demand_avg_mshr_miss_latency::cpu.inst 148904.225352                       # average overall mshr miss latency
system.l3.demand_avg_mshr_miss_latency::cpu.data 385137.643310                       # average overall mshr miss latency
system.l3.demand_avg_mshr_miss_latency::total 384841.447306                       # average overall mshr miss latency
system.l3.overall_avg_mshr_miss_latency::cpu.inst 148904.225352                       # average overall mshr miss latency
system.l3.overall_avg_mshr_miss_latency::cpu.data 385137.643310                       # average overall mshr miss latency
system.l3.overall_avg_mshr_miss_latency::total 384841.447306                       # average overall mshr miss latency
system.l3.replacements                         266763                       # number of replacements
system.membus.snoop_filter.tot_requests        549631                       # Total number of requests made to the snoop filter.
system.membus.snoop_filter.hit_single_requests       266498                       # Number of requests hitting in the snoop filter with a single holder of the requested data.
system.membus.snoop_filter.hit_multi_requests            0                       # Number of requests hitting in the snoop filter with multiple (>1) holders of the requested data.
system.membus.snoop_filter.tot_snoops               0                       # Total number of snoops made to the snoop filter.
system.membus.snoop_filter.hit_single_snoops            0                       # Number of snoops hitting in the snoop filter with a single holder of the requested data.
system.membus.snoop_filter.hit_multi_snoops            0                       # Number of snoops hitting in the snoop filter with multiple (>1) holders of the requested data.
system.membus.pwrStateResidencyTicks::UNDEFINED 1113576417000                       # Cumulative time (in ticks) in various power states
system.membus.trans_dist::ReadResp             220388                       # Transaction distribution
system.membus.trans_dist::WritebackDirty       260058                       # Transaction distribution
system.membus.trans_dist::CleanEvict             6410                       # Transaction distribution
system.membus.trans_dist::ReadExReq             62745                       # Transaction distribution
system.membus.trans_dist::ReadExResp            62745                       # Transaction distribution
system.membus.trans_dist::ReadSharedReq        220388                       # Transaction distribution
system.membus.pkt_count_system.l3.mem_side::system.mem_ctrls.port       832734                       # Packet count per connected master and slave (bytes)
system.membus.pkt_count_system.l3.mem_side::total       832734                       # Packet count per connected master and slave (bytes)
system.membus.pkt_count::total                 832734                       # Packet count per connected master and slave (bytes)
system.membus.pkt_size_system.l3.mem_side::system.mem_ctrls.port     34764224                       # Cumulative packet size per connected master and slave (bytes)
system.membus.pkt_size_system.l3.mem_side::total     34764224                       # Cumulative packet size per connected master and slave (bytes)
system.membus.pkt_size::total                34764224                       # Cumulative packet size per connected master and slave (bytes)
system.membus.snoops                                0                       # Total snoops (count)
system.membus.snoopTraffic                          0                       # Total snoop traffic (bytes)
system.membus.snoop_fanout::samples            283133                       # Request fanout histogram
system.membus.snoop_fanout::mean                    0                       # Request fanout histogram
system.membus.snoop_fanout::stdev                   0                       # Request fanout histogram
system.membus.snoop_fanout::underflows              0      0.00%      0.00% # Request fanout histogram
system.membus.snoop_fanout::0                  283133    100.00%    100.00% # Request fanout histogram
system.membus.snoop_fanout::1                       0      0.00%    100.00% # Request fanout histogram
system.membus.snoop_fanout::overflows               0      0.00%    100.00% # Request fanout histogram
system.membus.snoop_fanout::min_value               0                       # Request fanout histogram
system.membus.snoop_fanout::max_value               0                       # Request fanout histogram
system.membus.snoop_fanout::total              283133                       # Request fanout histogram
system.membus.reqLayer2.occupancy          1589865000                       # Layer occupancy (ticks)
system.membus.reqLayer2.utilization               0.1                       # Layer utilization (%)
system.membus.respLayer1.occupancy         1415667000                       # Layer occupancy (ticks)
system.membus.respLayer1.utilization              0.1                       # Layer utilization (%)
system.tol2bus.snoop_filter.tot_requests      1581565                       # Total number of requests made to the snoop filter.
system.tol2bus.snoop_filter.hit_single_requests       898761                       # Number of requests hitting in the snoop filter with a single holder of the requested data.
system.tol2bus.snoop_filter.hit_multi_requests            0                       # Number of requests hitting in the snoop filter with multiple (>1) holders of the requested data.
system.tol2bus.snoop_filter.tot_snoops            666                       # Total number of snoops made to the snoop filter.
system.tol2bus.snoop_filter.hit_single_snoops          666                       # Number of snoops hitting in the snoop filter with a single holder of the requested data.
system.tol2bus.snoop_filter.hit_multi_snoops            0                       # Number of snoops hitting in the snoop filter with multiple (>1) holders of the requested data.
system.tol2bus.pwrStateResidencyTicks::UNDEFINED 1113576417000                       # Cumulative time (in ticks) in various power states
system.tol2bus.trans_dist::ReadResp            616328                       # Transaction distribution
system.tol2bus.trans_dist::WritebackDirty      1165584                       # Transaction distribution
system.tol2bus.trans_dist::WritebackClean           46                       # Transaction distribution
system.tol2bus.trans_dist::CleanEvict           33434                       # Transaction distribution
system.tol2bus.trans_dist::UpgradeReq          216778                       # Transaction distribution
system.tol2bus.trans_dist::UpgradeResp         216778                       # Transaction distribution
system.tol2bus.trans_dist::ReadExReq            66476                       # Transaction distribution
system.tol2bus.trans_dist::ReadExResp           66476                       # Transaction distribution
system.tol2bus.trans_dist::ReadCleanReq           355                       # Transaction distribution
system.tol2bus.trans_dist::ReadSharedReq       615973                       # Transaction distribution
system.tol2bus.pkt_count_system.cpu.icache.mem_side::system.l2.cpu_side          756                       # Packet count per connected master and slave (bytes)
system.tol2bus.pkt_count_system.cpu.dcache.mem_side::system.l2.cpu_side      2480391                       # Packet count per connected master and slave (bytes)
system.tol2bus.pkt_count::total               2481147                       # Packet count per connected master and slave (bytes)
system.tol2bus.pkt_size_system.cpu.icache.mem_side::system.l2.cpu_side        25664                       # Cumulative packet size per connected master and slave (bytes)
system.tol2bus.pkt_size_system.cpu.dcache.mem_side::system.l2.cpu_side     85745664                       # Cumulative packet size per connected master and slave (bytes)
system.tol2bus.pkt_size::total               85771328                       # Cumulative packet size per connected master and slave (bytes)
system.tol2bus.snoops                          517081                       # Total snoops (count)
system.tol2bus.snoopTraffic                  32528448                       # Total snoop traffic (bytes)
system.tol2bus.snoop_fanout::samples          1416663                       # Request fanout histogram
system.tol2bus.snoop_fanout::mean            0.000470                       # Request fanout histogram
system.tol2bus.snoop_fanout::stdev           0.021677                       # Request fanout histogram
system.tol2bus.snoop_fanout::underflows             0      0.00%      0.00% # Request fanout histogram
system.tol2bus.snoop_fanout::0                1415997     99.95%     99.95% # Request fanout histogram
system.tol2bus.snoop_fanout::1                    666      0.05%    100.00% # Request fanout histogram
system.tol2bus.snoop_fanout::2                      0      0.00%    100.00% # Request fanout histogram
system.tol2bus.snoop_fanout::3                      0      0.00%    100.00% # Request fanout histogram
system.tol2bus.snoop_fanout::4                      0      0.00%    100.00% # Request fanout histogram
system.tol2bus.snoop_fanout::overflows              0      0.00%    100.00% # Request fanout histogram
system.tol2bus.snoop_fanout::min_value              0                       # Request fanout histogram
system.tol2bus.snoop_fanout::max_value              1                       # Request fanout histogram
system.tol2bus.snoop_fanout::total            1416663                       # Request fanout histogram
system.tol2bus.reqLayer0.occupancy         1448155500                       # Layer occupancy (ticks)
system.tol2bus.reqLayer0.utilization              0.1                       # Layer utilization (%)
system.tol2bus.respLayer0.occupancy            532500                       # Layer occupancy (ticks)
system.tol2bus.respLayer0.utilization             0.0                       # Layer utilization (%)
system.tol2bus.respLayer1.occupancy        1132062500                       # Layer occupancy (ticks)
system.tol2bus.respLayer1.utilization             0.1                       # Layer utilization (%)
system.tol3bus.snoop_filter.tot_requests      1035149                       # Total number of requests made to the snoop filter.
system.tol3bus.snoop_filter.hit_single_requests       516415                       # Number of requests hitting in the snoop filter with a single holder of the requested data.
system.tol3bus.snoop_filter.hit_multi_requests            0                       # Number of requests hitting in the snoop filter with multiple (>1) holders of the requested data.
system.tol3bus.snoop_filter.tot_snoops            295                       # Total number of snoops made to the snoop filter.
system.tol3bus.snoop_filter.hit_single_snoops          295                       # Number of snoops hitting in the snoop filter with a single holder of the requested data.
system.tol3bus.snoop_filter.hit_multi_snoops            0                       # Number of snoops hitting in the snoop filter with multiple (>1) holders of the requested data.
system.tol3bus.pwrStateResidencyTicks::UNDEFINED 1113576417000                       # Cumulative time (in ticks) in various power states
system.tol3bus.trans_dist::ReadResp            455298                       # Transaction distribution
system.tol3bus.trans_dist::WritebackDirty       768315                       # Transaction distribution
system.tol3bus.trans_dist::CleanEvict           14863                       # Transaction distribution
system.tol3bus.trans_dist::ReadExReq            63436                       # Transaction distribution
system.tol3bus.trans_dist::ReadExResp           63436                       # Transaction distribution
system.tol3bus.trans_dist::ReadSharedReq       455298                       # Transaction distribution
system.tol3bus.pkt_count_system.l2.mem_side::system.l3.cpu_side      1553883                       # Packet count per connected master and slave (bytes)
system.tol3bus.pkt_size_system.l2.mem_side::system.l3.cpu_side     65727424                       # Cumulative packet size per connected master and slave (bytes)
system.tol3bus.snoops                          266763                       # Total snoops (count)
system.tol3bus.snoopTraffic                  16643712                       # Total snoop traffic (bytes)
system.tol3bus.snoop_fanout::samples           785497                       # Request fanout histogram
system.tol3bus.snoop_fanout::mean            0.000376                       # Request fanout histogram
system.tol3bus.snoop_fanout::stdev           0.019376                       # Request fanout histogram
system.tol3bus.snoop_fanout::underflows             0      0.00%      0.00% # Request fanout histogram
system.tol3bus.snoop_fanout::0                 785202     99.96%     99.96% # Request fanout histogram
system.tol3bus.snoop_fanout::1                    295      0.04%    100.00% # Request fanout histogram
system.tol3bus.snoop_fanout::overflows              0      0.00%    100.00% # Request fanout histogram
system.tol3bus.snoop_fanout::min_value              0                       # Request fanout histogram
system.tol3bus.snoop_fanout::max_value              1                       # Request fanout histogram
system.tol3bus.snoop_fanout::total             785497                       # Request fanout histogram
system.tol3bus.reqLayer0.occupancy         1025831500                       # Layer occupancy (ticks)
system.tol3bus.reqLayer0.utilization              0.1                       # Layer utilization (%)
system.tol3bus.respLayer0.occupancy         778101000                       # Layer occupancy (ticks)
system.tol3bus.respLayer0.utilization             0.1                       # Layer utilization (%)

---------- End Simulation Statistics   ----------
